/*--------------------------------*- C++ -*----------------------------------*\
| =========                 |                                                 |
| \\      /  F ield         | OpenFOAM: The Open Source CFD Toolbox           |
|  \\    /   O peration     | Version:  v2312                                 |
|   \\  /    A nd           | Website:  www.openfoam.com                      |
|    \\/     M anipulation  |                                                 |
\*---------------------------------------------------------------------------*/
FoamFile
{
    version     2.0;
    format      ascii;
    class       dictionary;
    object      blockMeshDict;
}
// * * * * * * * * * * * * * * * * * * * * * * * * * * * * * * * * * * * * * //

scale   1e-6; // ?

// vertices
// (
//     (0.2 0.2 0.1)
//     (0.8 0.2 0.1)
//     (0.8 0.8 0.1)
//     (0.2 0.8 0.1)
//     (0.2 0.2 0.8)
//     (0.8 0.2 0.8)
//     (0.8 0.8 0.8)
//     (0.2 0.8 0.8)
// );

vertices
(
    (225 225 -55)
    (375 225 -55)
    (375 375 -55)
    (225 375 -55)
    (225 225 95)
    (375 225 95)
    (375 375 95)
    (225 375 95)
);

blocks
(
    hex (0 1 2 3 4 5 6 7) (30 30 30) simpleGrading (1 1 1)
);

edges
(
);

boundary
(
    sides
    {
        type overset;
        faces
        (
            (0 3 2 1)
            (2 6 5 1)
            (1 5 4 0)
            (3 7 6 2)
            (0 4 7 3)
            (4 5 6 7)
        );
    }
    floatingObject
    {
        type wall;
        faces ();
    }
);


// ************************************************************************* //
