/*--------------------------------*- C++ -*----------------------------------*\
| =========                 |                                                 |
| \\      /  F ield         | OpenFOAM: The Open Source CFD Toolbox           |
|  \\    /   O peration     | Version:  v2512                                 |
|   \\  /    A nd           | Website:  www.openfoam.com                      |
|    \\/     M anipulation  |                                                 |
\*---------------------------------------------------------------------------*/
FoamFile
{
    version     2.0;
    format      ascii;
    class       dictionary;
    object      snappyHexMeshDict;
}
// * * * * * * * * * * * * * * * * * * * * * * * * * * * * * * * * * * * * * //

// Type of mesh generation:
//  - castellated (default)
//  - castellatedBufferLayer
//type            castellatedBufferLayer;


// Which of the steps to run
castellatedMesh true;
snap            true;
addLayers       false;

geometry
{
    floatingObject.stl
    {
        type triSurfaceMesh;
        name floatingObject; // ! add

    }
};

// Settings for the castellatedMesh generation.
castellatedMeshControls
{

    maxLocalCells 100000;
    maxGlobalCells 2000000;
    minRefinementCells 0;
    maxLoadUnbalance 0.10;

    nCellsBetweenLevels 2; // ? original is 1

    features // 几何特征
    (
        {
            file "floatingObject.eMesh";
            level 2;        // Have level 2 for all cells intersected
                             // by feature.
            //levels ((0.1 2)); // Have level 2 for all cells within
                             // 0.1 of feature.
        }
    );

    refinementSurfaces // 指定被处理的几何体
    {
        floatingObject
        {
            // Surface-wise min and max refinement level
            level (2 2);

            // Optional region-wise level specification
            // regions
            // {
            //     secondSolid
            //     {
            //         level (3 3);
            //     }
            // }

            // Optional specification of patch type (default is wall). No
            // constraint types (cyclic, symmetry) etc. are allowed.
            patchInfo
            {
                type wall;
                // inGroups (meshedPatches); // todo
            }


        }
    }

    resolveFeatureAngle 30;

    refinementRegions
    {
    }

    limitRegions
    {
    }
    locationInMesh (0.5 0.5 0.5);
    allowFreeStandingZoneFaces true;
}

// 控制网格节点的移动
snapControls
{
    nSmoothPatch 3;
    tolerance 2.0;
    nSolveIter 30;
    nRelaxIter 5;
    nFeatureSnapIter 10;
    implicitFeatureSnap false;
    explicitFeatureSnap true;
    multiRegionFeatureSnap false;
}

// Settings for the layer addition.
addLayersControls
{
    // Are the thickness parameters below relative to the undistorted
    // size of the refined cell outside layer (true) or absolute sizes (false).
    relativeSizes true;

    // Expansion factor for layer mesh
    expansionRatio 1.0;

    // Wanted thickness of the layer furthest away from the wall.
    // If relativeSizes this is relative to undistorted size of cell
    // outside layer.
    finalLayerThickness 0.3;


    // Minimum overall thickness of total layers. If for any reason layer
    // cannot be above minThickness do not add layer.
    // If relativeSizes this is relative to undistorted size of cell
    // outside layer..
    minThickness 0.1;


    // Per final patch or faceZone (so not geometry!) the layer information:
    // - whether to use relative or absolute sizes
    // - thicknessModel (or individual settings)
    // - minimum thickness
    //
    // Note: mesh shrinking behaviour changed after 21x. Any non-mentioned
    //       patches now slide unless:
    //          - nSurfaceLayers is explicitly mentioned to be 0.
    //          - angle to nearest surface < slipFeatureAngle (see below)
    layers
    {
        // sphere.stl_firstSolid
        // {
        //     nSurfaceLayers 1;

        // }
        // maxY
        // {
        //     nSurfaceLayers 1;
        //     // Per patch layer data
        //     expansionRatio      1.3;
        //     finalLayerThickness 0.3;
        //     minThickness        0.1;
        // }

        // Disable any mesh shrinking and layer addition on any point of
        // a patch by setting nSurfaceLayers to 0
        frozenPatches
        {
            nSurfaceLayers 0;
        }
    }

    // If points get not extruded do nGrow layers of connected faces that are
    // also not grown. This helps convergence of the layer addition process
    // close to features.
    // Note: changed(corrected) w.r.t 1.7.x! (didn't do anything in 1.7.x)
    nGrow 0;

    // Advanced settings


    // Static analysis of starting mesh

        // When not to extrude surface. 0 is flat surface, 90 is when two faces
        // are perpendicular. Note: was not working correctly < 1806
        featureAngle 120;

        // When to merge patch faces. Default is featureAngle. Useful when
        // featureAngle is large.
        //mergePatchFacesAngle 45;

        // Stop layer growth on highly warped cells
        maxFaceThicknessRatio 0.5;


    // Patch displacement

        // Number of smoothing iterations of surface normals
        nSmoothSurfaceNormals 1;

        // Smooth layer thickness over surface patches
        nSmoothThickness 10;

        minMedialAxisAngle 90;

        // Reduce layer growth where ratio thickness to medial
        // distance is large
        maxThicknessToMedialRatio 0.3;

        // Number of smoothing iterations of interior mesh movement direction
        nSmoothNormals 3;

        slipFeatureAngle 30;

        // Maximum number of snapping relaxation iterations. Should stop
        // before upon reaching a correct mesh.
        nRelaxIter 5;


    // Mesh shrinking

        // Create buffer region for new layer terminations, i.e. gradually
        // step down number of layers. Set to <0 to terminate layer in one go.
        nBufferCellsNoExtrude 0;

        // Overall max number of layer addition iterations. The mesher will
        // exit if it reaches this number of iterations; possibly with an
        // illegal mesh.
        nLayerIter 50;

        // Max number of iterations after which relaxed meshQuality controls
        // get used. Up to nRelaxedIter it uses the settings in
        // meshQualityControls,
        // after nRelaxedIter it uses the values in
        // meshQualityControls::relaxed.
        nRelaxedIter 20;

        // Additional reporting: if there are just a few faces where there
        // are mesh errors (after adding the layers) print their face centres.
        // This helps in tracking down problematic mesh areas.
        //additionalReporting true;
}

// Generic mesh quality settings. At any undoable phase these determine
// where to undo.
meshQualityControls
{
    // Specify mesh quality constraints in separate dictionary so can
    // be reused (e.g. checkMesh -meshQuality)
    #include "meshQualityDict"


    // Optional : some meshing phases allow usage of relaxed rules.
    // See e.g. addLayersControls::nRelaxedIter.
    relaxed
    {
        // Maximum non-orthogonality allowed. Set to 180 to disable.
        maxNonOrtho 75;
    }


    // Advanced

        // Number of error distribution iterations
        nSmoothScale 4;
        // amount to scale back displacement at error points
        errorReduction 0.75;
}

// Advanced

//// Debug flags
//debugFlags
//(
//    mesh            // write intermediate meshes
//    intersections   // write current mesh intersections as .obj files
//    featureSeeds    // write information about explicit feature edge
//                    // refinement
//    attraction      // write attraction as .obj files
//    layerInfo       // write information about layers
//);
//
//// Write flags
writeFlags
(
   scalarLevels    // write volScalarField with cellLevel for postprocessing
   layerSets       // write cellSets, faceSets of faces in layer
   layerFields     // write volScalarField for layer coverage
);


//// Format for writing lines. E.g. leak path. Default is vtk format.
//setFormat ensight;

//// Format to use for surfaces. E.g. leak-closure faces. Default is vtk format.
//surfaceFormat vtk;

// Merge tolerance. Is fraction of overall bounding box of initial mesh.
// Note: the write tolerance needs to be higher than this.
mergeTolerance 1e-6;

// ************************************************************************* //
