/*--------------------------------*- C++ -*----------------------------------*\
| =========                 |                                                 |
| \\      /  F ield         | OpenFOAM: The Open Source CFD Toolbox           |
|  \\    /   O peration     | Version:  v2312                                 |
|   \\  /    A nd           | Website:  www.openfoam.com                      |
|    \\/     M anipulation  |                                                 |
\*---------------------------------------------------------------------------*/
FoamFile
{
    version     2.0;
    format      ascii;
    class       dictionary;
    object      topoSetDict;
}
// * * * * * * * * * * * * * * * * * * * * * * * * * * * * * * * * * * * * * //

actions
(

    // {
    //     name        c0;
    //     type        cellSet;
    //     action      new;
    //     source      sphereToCell;
    //     origin      (0.5 0.5 0.5);
    //     radius      0.1;
    //     innerRadius 0;
    // }

    {
        name    c0;
        type    cellSet;
        action  new;
        source  boxToCell;
        box     (0.4 0.4 0.4) (0.6 0.6 0.6);
    }

    {
        name    c0;
        type    cellSet;
        action  invert;
    }
);


// ************************************************************************* //
