/*--------------------------------*- C++ -*----------------------------------*\
| =========                 |                                                 |
| \\      /  F ield         | OpenFOAM: The Open Source CFD Toolbox           |
|  \\    /   O peration     | Version:  v2312                                 |
|   \\  /    A nd           | Website:  www.openfoam.com                      |
|    \\/     M anipulation  |                                                 |
\*---------------------------------------------------------------------------*/
FoamFile
{
    version     2.0;
    format      ascii;
    class       dictionary;
    object      topoSetDict;
}
// * * * * * * * * * * * * * * * * * * * * * * * * * * * * * * * * * * * * * //

actions
(

    // {
    //     name        c0;
    //     type        cellSet;
    //     action      new;
    //     source      sphereToCell;
    //     origin      (0.5 0.5 0.5);
    //     radius      0.1;
    //     innerRadius 0;
    // }

    // {
    //     name    c0;
    //     type    cellSet;
    //     action  new;
    //     source  boxToCell;
    //     box     (285e-6 285e-6 5e-6) (315e-6 315e-6 35e-6);
    // }

    // {
    //     name    c0;
    //     type    cellSet;
    //     action  new;
    //     source  boxToCell;
    //     box     (285e-2 285e-2 5e-2) (315e-2 315e-2 35e-2);
    // }

    // {
    //     name    c0;
    //     type    cellSet;
    //     action  invert;
    // }

    // stl
    {
        name    c0;
        type    cellSet;
        action  new;
        source  regionToCell;
        insidePoints    ((0.25e-2 0.25e-2 0.15e-2));
    }
);


// ************************************************************************* //
